<routes>
  <vehicle id="veh0" depart="5.0">
    <route edges="A0A1"/>
  </vehicle>
  <vehicle id="veh1" depart="5.0">
    <route edges="B0A0"/>
  </vehicle>
  <vehicle id="veh2" depart="5.0">
    <route edges="B1A1"/>
  </vehicle>
  <vehicle id="veh3" depart="30.0">
    <route edges="B0B1"/>
  </vehicle>
  <vehicle id="veh4" depart="30.0">
    <route edges="A0B0"/>
  </vehicle>
  <vehicle id="veh5" depart="30.0">
    <route edges="B1A1"/>
  </vehicle>
  <vehicle id="veh6" depart="30.0">
    <route edges="B0B1"/>
  </vehicle>
  <vehicle id="veh7" depart="30.0">
    <route edges="B1B0"/>
  </vehicle>
  <vehicle id="veh8" depart="35.0">
    <route edges="A0B0"/>
  </vehicle>
  <vehicle id="veh9" depart="35.0">
    <route edges="A0A1"/>
  </vehicle>
  <vehicle id="veh10" depart="35.0">
    <route edges="B1B0"/>
  </vehicle>
  <vehicle id="veh11" depart="35.0">
    <route edges="B0A0"/>
  </vehicle>
  <vehicle id="veh12" depart="40.0">
    <route edges="A1B1"/>
  </vehicle>
  <vehicle id="veh13" depart="40.0">
    <route edges="B0B1"/>
  </vehicle>
  <vehicle id="veh14" depart="40.0">
    <route edges="B1B0"/>
  </vehicle>
  <vehicle id="veh15" depart="40.0">
    <route edges="A1A0"/>
  </vehicle>
  <vehicle id="veh16" depart="50.0">
    <route edges="B0B1"/>
  </vehicle>
  <vehicle id="veh17" depart="50.0">
    <route edges="B0B1"/>
  </vehicle>
  <vehicle id="veh18" depart="50.0">
    <route edges="B1B0"/>
  </vehicle>
  <vehicle id="veh19" depart="50.0">
    <route edges="B0B1"/>
  </vehicle>
  <vehicle id="veh20" depart="50.0">
    <route edges="B1A1"/>
  </vehicle>
  <vehicle id="veh21" depart="50.0">
    <route edges="A0B0"/>
  </vehicle>
  <vehicle id="veh22" depart="50.0">
    <route edges="A0B0"/>
  </vehicle>
  <vehicle id="veh23" depart="50.0">
    <route edges="A1B1"/>
  </vehicle>
  <vehicle id="veh24" depart="50.0">
    <route edges="B0A0"/>
  </vehicle>
  <vehicle id="veh25" depart="50.0">
    <route edges="B0A0"/>
  </vehicle>
  <vehicle id="veh26" depart="50.0">
    <route edges="B1A1"/>
  </vehicle>
  <vehicle id="veh27" depart="50.0">
    <route edges="A0B0"/>
  </vehicle>
  <vehicle id="veh28" depart="50.0">
    <route edges="A1A0"/>
  </vehicle>
  <vehicle id="veh29" depart="50.0">
    <route edges="B1A1"/>
  </vehicle>
  <vehicle id="veh30" depart="50.0">
    <route edges="B1A1"/>
  </vehicle>
  <vehicle id="veh31" depart="50.0">
    <route edges="B1A1"/>
  </vehicle>
  <vehicle id="veh32" depart="60.0">
    <route edges="B0B1"/>
  </vehicle>
  <vehicle id="veh33" depart="60.0">
    <route edges="B1A1"/>
  </vehicle>
  <vehicle id="veh34" depart="60.0">
    <route edges="A1B1"/>
  </vehicle>
  <vehicle id="veh35" depart="60.0">
    <route edges="A0B0"/>
  </vehicle>
  <vehicle id="veh36" depart="60.0">
    <route edges="A1A0"/>
  </vehicle>
  <vehicle id="veh37" depart="60.0">
    <route edges="B0A0"/>
  </vehicle>
  <vehicle id="veh38" depart="60.0">
    <route edges="A0A1"/>
  </vehicle>
  <vehicle id="veh39" depart="60.0">
    <route edges="B0B1"/>
  </vehicle>
  <vehicle id="veh40" depart="65.0">
    <route edges="B0B1"/>
  </vehicle>
  <vehicle id="veh41" depart="65.0">
    <route edges="B0A0"/>
  </vehicle>
  <vehicle id="veh42" depart="65.0">
    <route edges="B0A0"/>
  </vehicle>
  <vehicle id="veh43" depart="65.0">
    <route edges="A0A1"/>
  </vehicle>
  <vehicle id="veh44" depart="65.0">
    <route edges="B1B0"/>
  </vehicle>
  <vehicle id="veh45" depart="70.0">
    <route edges="A0B0"/>
  </vehicle>
  <vehicle id="veh46" depart="70.0">
    <route edges="A0A1"/>
  </vehicle>
  <vehicle id="veh47" depart="70.0">
    <route edges="B0A0"/>
  </vehicle>
  <vehicle id="veh48" depart="70.0">
    <route edges="B0B1"/>
  </vehicle>
  <vehicle id="veh49" depart="70.0">
    <route edges="A0A1"/>
  </vehicle>
  <vehicle id="veh50" depart="75.0">
    <route edges="A0A1"/>
  </vehicle>
  <vehicle id="veh51" depart="75.0">
    <route edges="B0B1"/>
  </vehicle>
  <vehicle id="veh52" depart="75.0">
    <route edges="B1A1"/>
  </vehicle>
  <vehicle id="veh53" depart="75.0">
    <route edges="B1B0"/>
  </vehicle>
  <vehicle id="veh54" depart="75.0">
    <route edges="A1B1"/>
  </vehicle>
  <vehicle id="veh55" depart="75.0">
    <route edges="B1B0"/>
  </vehicle>
  <vehicle id="veh56" depart="85.0">
    <route edges="B1A1"/>
  </vehicle>
  <vehicle id="veh57" depart="85.0">
    <route edges="A1B1"/>
  </vehicle>
  <vehicle id="veh58" depart="85.0">
    <route edges="B0B1"/>
  </vehicle>
  <vehicle id="veh59" depart="85.0">
    <route edges="B1B0"/>
  </vehicle>
  <vehicle id="veh60" depart="85.0">
    <route edges="A1B1"/>
  </vehicle>
  <vehicle id="veh61" depart="85.0">
    <route edges="A1A0"/>
  </vehicle>
  <vehicle id="veh62" depart="85.0">
    <route edges="B1A1"/>
  </vehicle>
  <vehicle id="veh63" depart="85.0">
    <route edges="B0B1"/>
  </vehicle>
  <vehicle id="veh64" depart="90.0">
    <route edges="B0A0"/>
  </vehicle>
  <vehicle id="veh65" depart="90.0">
    <route edges="B1B0"/>
  </vehicle>
  <vehicle id="veh66" depart="90.0">
    <route edges="A0A1"/>
  </vehicle>
  <vehicle id="veh67" depart="90.0">
    <route edges="A1A0"/>
  </vehicle>
  <vehicle id="veh68" depart="90.0">
    <route edges="A1B1"/>
  </vehicle>
  <vehicle id="veh69" depart="95.0">
    <route edges="A0A1"/>
  </vehicle>
  <vehicle id="veh70" depart="95.0">
    <route edges="B0A0"/>
  </vehicle>
  <vehicle id="veh71" depart="95.0">
    <route edges="A0B0"/>
  </vehicle>
  <vehicle id="veh72" depart="95.0">
    <route edges="B0B1"/>
  </vehicle>
  <vehicle id="veh73" depart="95.0">
    <route edges="A1A0"/>
  </vehicle>
  <vehicle id="veh74" depart="105.0">
    <route edges="B0B1"/>
  </vehicle>
  <vehicle id="veh75" depart="105.0">
    <route edges="B1B0"/>
  </vehicle>
  <vehicle id="veh76" depart="110.0">
    <route edges="A1A0"/>
  </vehicle>
  <vehicle id="veh77" depart="110.0">
    <route edges="B0B1"/>
  </vehicle>
  <vehicle id="veh78" depart="115.0">
    <route edges="B1A1"/>
  </vehicle>
  <vehicle id="veh79" depart="120.0">
    <route edges="B1A1"/>
  </vehicle>
  <vehicle id="veh80" depart="120.0">
    <route edges="A1A0"/>
  </vehicle>
  <vehicle id="veh81" depart="120.0">
    <route edges="B1B0"/>
  </vehicle>
  <vehicle id="veh82" depart="120.0">
    <route edges="B1A1"/>
  </vehicle>
  <vehicle id="veh83" depart="120.0">
    <route edges="B1B0"/>
  </vehicle>
  <vehicle id="veh84" depart="120.0">
    <route edges="A1B1"/>
  </vehicle>
  <vehicle id="veh85" depart="120.0">
    <route edges="B1B0"/>
  </vehicle>
  <vehicle id="veh86" depart="120.0">
    <route edges="B0A0"/>
  </vehicle>
  <vehicle id="veh87" depart="130.0">
    <route edges="A1A0"/>
  </vehicle>
  <vehicle id="veh88" depart="130.0">
    <route edges="B0A0"/>
  </vehicle>
  <vehicle id="veh89" depart="130.0">
    <route edges="A1A0"/>
  </vehicle>
  <vehicle id="veh90" depart="130.0">
    <route edges="B1B0"/>
  </vehicle>
  <vehicle id="veh91" depart="130.0">
    <route edges="B0A0"/>
  </vehicle>
  <vehicle id="veh92" depart="135.0">
    <route edges="B1B0"/>
  </vehicle>
  <vehicle id="veh93" depart="135.0">
    <route edges="A0B0"/>
  </vehicle>
  <vehicle id="veh94" depart="135.0">
    <route edges="A0B0"/>
  </vehicle>
  <vehicle id="veh95" depart="135.0">
    <route edges="A0A1"/>
  </vehicle>
  <vehicle id="veh96" depart="135.0">
    <route edges="A1A0"/>
  </vehicle>
  <vehicle id="veh97" depart="135.0">
    <route edges="B1B0"/>
  </vehicle>
  <vehicle id="veh98" depart="135.0">
    <route edges="A1A0"/>
  </vehicle>
  <vehicle id="veh99" depart="140.0">
    <route edges="B1B0"/>
  </vehicle>
  <vehicle id="veh100" depart="140.0">
    <route edges="B1B0"/>
  </vehicle>
  <vehicle id="veh101" depart="140.0">
    <route edges="B0B1"/>
  </vehicle>
  <vehicle id="veh102" depart="140.0">
    <route edges="B0B1"/>
  </vehicle>
  <vehicle id="veh103" depart="140.0">
    <route edges="A0B0"/>
  </vehicle>
  <vehicle id="veh104" depart="145.0">
    <route edges="A0A1"/>
  </vehicle>
  <vehicle id="veh105" depart="145.0">
    <route edges="A0B0"/>
  </vehicle>
  <vehicle id="veh106" depart="145.0">
    <route edges="B1A1"/>
  </vehicle>
  <vehicle id="veh107" depart="150.0">
    <route edges="A1B1"/>
  </vehicle>
  <vehicle id="veh108" depart="150.0">
    <route edges="A0B0"/>
  </vehicle>
  <vehicle id="veh109" depart="150.0">
    <route edges="A0A1"/>
  </vehicle>
  <vehicle id="veh110" depart="150.0">
    <route edges="B0B1"/>
  </vehicle>
  <vehicle id="veh111" depart="150.0">
    <route edges="A0B0"/>
  </vehicle>
  <vehicle id="veh112" depart="150.0">
    <route edges="A0A1"/>
  </vehicle>
  <vehicle id="veh113" depart="150.0">
    <route edges="A1A0"/>
  </vehicle>
  <vehicle id="veh114" depart="150.0">
    <route edges="A1A0"/>
  </vehicle>
  <vehicle id="veh115" depart="155.0">
    <route edges="B0B1"/>
  </vehicle>
  <vehicle id="veh116" depart="155.0">
    <route edges="A0A1"/>
  </vehicle>
  <vehicle id="veh117" depart="155.0">
    <route edges="A0B0"/>
  </vehicle>
  <vehicle id="veh118" depart="155.0">
    <route edges="B0A0"/>
  </vehicle>
  <vehicle id="veh119" depart="155.0">
    <route edges="A1A0"/>
  </vehicle>
  <vehicle id="veh120" depart="160.0">
    <route edges="A1B1"/>
  </vehicle>
  <vehicle id="veh121" depart="160.0">
    <route edges="A0B0"/>
  </vehicle>
  <vehicle id="veh122" depart="160.0">
    <route edges="B1B0"/>
  </vehicle>
  <vehicle id="veh123" depart="160.0">
    <route edges="B0A0"/>
  </vehicle>
  <vehicle id="veh124" depart="160.0">
    <route edges="B1A1"/>
  </vehicle>
  <vehicle id="veh125" depart="160.0">
    <route edges="B1A1"/>
  </vehicle>
  <vehicle id="veh126" depart="170.0">
    <route edges="A1A0"/>
  </vehicle>
  <vehicle id="veh127" depart="170.0">
    <route edges="A1B1"/>
  </vehicle>
  <vehicle id="veh128" depart="180.0">
    <route edges="A1B1"/>
  </vehicle>
  <vehicle id="veh129" depart="180.0">
    <route edges="B1B0"/>
  </vehicle>
  <vehicle id="veh130" depart="180.0">
    <route edges="B0B1"/>
  </vehicle>
  <vehicle id="veh131" depart="180.0">
    <route edges="A0A1"/>
  </vehicle>
  <vehicle id="veh132" depart="190.0">
    <route edges="B1A1"/>
  </vehicle>
  <vehicle id="veh133" depart="195.0">
    <route edges="A0B0"/>
  </vehicle>
  <vehicle id="veh134" depart="195.0">
    <route edges="B1B0"/>
  </vehicle>
  <vehicle id="veh135" depart="205.0">
    <route edges="B0B1"/>
  </vehicle>
  <vehicle id="veh136" depart="205.0">
    <route edges="A1A0"/>
  </vehicle>
  <vehicle id="veh137" depart="205.0">
    <route edges="A0B0"/>
  </vehicle>
  <vehicle id="veh138" depart="210.0">
    <route edges="B0B1"/>
  </vehicle>
  <vehicle id="veh139" depart="215.0">
    <route edges="A0B0"/>
  </vehicle>
  <vehicle id="veh140" depart="215.0">
    <route edges="A1B1"/>
  </vehicle>
  <vehicle id="veh141" depart="215.0">
    <route edges="A1B1"/>
  </vehicle>
  <vehicle id="veh142" depart="215.0">
    <route edges="A1A0"/>
  </vehicle>
  <vehicle id="veh143" depart="225.0">
    <route edges="B0B1"/>
  </vehicle>
  <vehicle id="veh144" depart="225.0">
    <route edges="B1B0"/>
  </vehicle>
  <vehicle id="veh145" depart="225.0">
    <route edges="A0A1"/>
  </vehicle>
  <vehicle id="veh146" depart="225.0">
    <route edges="A1A0"/>
  </vehicle>
  <vehicle id="veh147" depart="225.0">
    <route edges="B0A0"/>
  </vehicle>
  <vehicle id="veh148" depart="230.0">
    <route edges="A0B0"/>
  </vehicle>
  <vehicle id="veh149" depart="230.0">
    <route edges="A1B1"/>
  </vehicle>
  <vehicle id="veh150" depart="230.0">
    <route edges="B1B0"/>
  </vehicle>
  <vehicle id="veh151" depart="230.0">
    <route edges="A1A0"/>
  </vehicle>
  <vehicle id="veh152" depart="230.0">
    <route edges="A0B0"/>
  </vehicle>
  <vehicle id="veh153" depart="235.0">
    <route edges="A1A0"/>
  </vehicle>
  <vehicle id="veh154" depart="235.0">
    <route edges="B0B1"/>
  </vehicle>
  <vehicle id="veh155" depart="235.0">
    <route edges="B0B1"/>
  </vehicle>
  <vehicle id="veh156" depart="235.0">
    <route edges="B1B0"/>
  </vehicle>
  <vehicle id="veh157" depart="235.0">
    <route edges="B0A0"/>
  </vehicle>
  <vehicle id="veh158" depart="235.0">
    <route edges="B1B0"/>
  </vehicle>
  <vehicle id="veh159" depart="240.0">
    <route edges="A1A0"/>
  </vehicle>
  <vehicle id="veh160" depart="240.0">
    <route edges="B1A1"/>
  </vehicle>
  <vehicle id="veh161" depart="240.0">
    <route edges="A0B0"/>
  </vehicle>
  <vehicle id="veh162" depart="255.0">
    <route edges="B0B1"/>
  </vehicle>
  <vehicle id="veh163" depart="255.0">
    <route edges="B0A0"/>
  </vehicle>
  <vehicle id="veh164" depart="255.0">
    <route edges="B1A1"/>
  </vehicle>
  <vehicle id="veh165" depart="260.0">
    <route edges="A1B1"/>
  </vehicle>
  <vehicle id="veh166" depart="260.0">
    <route edges="A1B1"/>
  </vehicle>
  <vehicle id="veh167" depart="260.0">
    <route edges="A1A0"/>
  </vehicle>
  <vehicle id="veh168" depart="260.0">
    <route edges="B0A0"/>
  </vehicle>
  <vehicle id="veh169" depart="260.0">
    <route edges="B1A1"/>
  </vehicle>
  <vehicle id="veh170" depart="265.0">
    <route edges="A1B1"/>
  </vehicle>
  <vehicle id="veh171" depart="265.0">
    <route edges="B1A1"/>
  </vehicle>
  <vehicle id="veh172" depart="265.0">
    <route edges="B1B0"/>
  </vehicle>
  <vehicle id="veh173" depart="265.0">
    <route edges="B0B1"/>
  </vehicle>
  <vehicle id="veh174" depart="265.0">
    <route edges="B1A1"/>
  </vehicle>
  <vehicle id="veh175" depart="270.0">
    <route edges="B1B0"/>
  </vehicle>
  <vehicle id="veh176" depart="270.0">
    <route edges="B1A1"/>
  </vehicle>
  <vehicle id="veh177" depart="270.0">
    <route edges="A1A0"/>
  </vehicle>
  <vehicle id="veh178" depart="270.0">
    <route edges="B0A0"/>
  </vehicle>
  <vehicle id="veh179" depart="280.0">
    <route edges="A0A1"/>
  </vehicle>
  <vehicle id="veh180" depart="280.0">
    <route edges="A0B0"/>
  </vehicle>
  <vehicle id="veh181" depart="280.0">
    <route edges="B1B0"/>
  </vehicle>
  <vehicle id="veh182" depart="280.0">
    <route edges="B0B1"/>
  </vehicle>
  <vehicle id="veh183" depart="280.0">
    <route edges="B0A0"/>
  </vehicle>
  <vehicle id="veh184" depart="280.0">
    <route edges="B0A0"/>
  </vehicle>
  <vehicle id="veh185" depart="285.0">
    <route edges="B1A1"/>
  </vehicle>
  <vehicle id="veh186" depart="285.0">
    <route edges="B1B0"/>
  </vehicle>
  <vehicle id="veh187" depart="285.0">
    <route edges="A0B0"/>
  </vehicle>
  <vehicle id="veh188" depart="285.0">
    <route edges="A1B1"/>
  </vehicle>
  <vehicle id="veh189" depart="295.0">
    <route edges="A1B1"/>
  </vehicle>
  <vehicle id="veh190" depart="295.0">
    <route edges="A1A0"/>
  </vehicle>
  <vehicle id="veh191" depart="295.0">
    <route edges="B1B0"/>
  </vehicle>
  <vehicle id="veh192" depart="295.0">
    <route edges="A0A1"/>
  </vehicle>
  <vehicle id="veh193" depart="295.0">
    <route edges="B0B1"/>
  </vehicle>
  <vehicle id="veh194" depart="295.0">
    <route edges="A0B0"/>
  </vehicle>
  <vehicle id="veh195" depart="305.0">
    <route edges="B0A0"/>
  </vehicle>
  <vehicle id="veh196" depart="305.0">
    <route edges="B1A1"/>
  </vehicle>
  <vehicle id="veh197" depart="305.0">
    <route edges="A1B1"/>
  </vehicle>
  <vehicle id="veh198" depart="305.0">
    <route edges="B0B1"/>
  </vehicle>
  <vehicle id="veh199" depart="305.0">
    <route edges="A0A1"/>
  </vehicle>
  <vehicle id="veh200" depart="310.0">
    <route edges="B0B1"/>
  </vehicle>
  <vehicle id="veh201" depart="310.0">
    <route edges="A1A0"/>
  </vehicle>
  <vehicle id="veh202" depart="310.0">
    <route edges="A1A0"/>
  </vehicle>
  <vehicle id="veh203" depart="310.0">
    <route edges="B0B1"/>
  </vehicle>
  <vehicle id="veh204" depart="310.0">
    <route edges="A1A0"/>
  </vehicle>
  <vehicle id="veh205" depart="320.0">
    <route edges="B1B0"/>
  </vehicle>
  <vehicle id="veh206" depart="320.0">
    <route edges="A0B0"/>
  </vehicle>
  <vehicle id="veh207" depart="320.0">
    <route edges="A1B1"/>
  </vehicle>
  <vehicle id="veh208" depart="320.0">
    <route edges="A1B1"/>
  </vehicle>
  <vehicle id="veh209" depart="320.0">
    <route edges="B1A1"/>
  </vehicle>
  <vehicle id="veh210" depart="330.0">
    <route edges="B1A1"/>
  </vehicle>
  <vehicle id="veh211" depart="330.0">
    <route edges="A1A0"/>
  </vehicle>
  <vehicle id="veh212" depart="330.0">
    <route edges="A1A0"/>
  </vehicle>
  <vehicle id="veh213" depart="330.0">
    <route edges="B0A0"/>
  </vehicle>
  <vehicle id="veh214" depart="330.0">
    <route edges="B0B1"/>
  </vehicle>
  <vehicle id="veh215" depart="340.0">
    <route edges="A0A1"/>
  </vehicle>
  <vehicle id="veh216" depart="340.0">
    <route edges="B1A1"/>
  </vehicle>
  <vehicle id="veh217" depart="340.0">
    <route edges="A0A1"/>
  </vehicle>
  <vehicle id="veh218" depart="340.0">
    <route edges="A0A1"/>
  </vehicle>
  <vehicle id="veh219" depart="340.0">
    <route edges="B0A0"/>
  </vehicle>
  <vehicle id="veh220" depart="355.0">
    <route edges="B0A0"/>
  </vehicle>
  <vehicle id="veh221" depart="355.0">
    <route edges="B0A0"/>
  </vehicle>
  <vehicle id="veh222" depart="355.0">
    <route edges="B1A1"/>
  </vehicle>
  <vehicle id="veh223" depart="355.0">
    <route edges="A0A1"/>
  </vehicle>
  <vehicle id="veh224" depart="355.0">
    <route edges="B1B0"/>
  </vehicle>
  <vehicle id="veh225" depart="355.0">
    <route edges="A1B1"/>
  </vehicle>
  <vehicle id="veh226" depart="355.0">
    <route edges="A0B0"/>
  </vehicle>
  <vehicle id="veh227" depart="355.0">
    <route edges="B1B0"/>
  </vehicle>
  <vehicle id="veh228" depart="365.0">
    <route edges="A1A0"/>
  </vehicle>
  <vehicle id="veh229" depart="365.0">
    <route edges="B0A0"/>
  </vehicle>
  <vehicle id="veh230" depart="365.0">
    <route edges="B0A0"/>
  </vehicle>
  <vehicle id="veh231" depart="365.0">
    <route edges="B0A0"/>
  </vehicle>
  <vehicle id="veh232" depart="365.0">
    <route edges="B1B0"/>
  </vehicle>
  <vehicle id="veh233" depart="365.0">
    <route edges="B1B0"/>
  </vehicle>
  <vehicle id="veh234" depart="370.0">
    <route edges="B1B0"/>
  </vehicle>
  <vehicle id="veh235" depart="370.0">
    <route edges="A1A0"/>
  </vehicle>
  <vehicle id="veh236" depart="375.0">
    <route edges="B0B1"/>
  </vehicle>
  <vehicle id="veh237" depart="375.0">
    <route edges="A1A0"/>
  </vehicle>
  <vehicle id="veh238" depart="375.0">
    <route edges="A1A0"/>
  </vehicle>
  <vehicle id="veh239" depart="375.0">
    <route edges="B0B1"/>
  </vehicle>
  <vehicle id="veh240" depart="380.0">
    <route edges="A1A0"/>
  </vehicle>
  <vehicle id="veh241" depart="380.0">
    <route edges="B1A1"/>
  </vehicle>
  <vehicle id="veh242" depart="380.0">
    <route edges="B1A1"/>
  </vehicle>
  <vehicle id="veh243" depart="380.0">
    <route edges="B0A0"/>
  </vehicle>
  <vehicle id="veh244" depart="380.0">
    <route edges="A0A1"/>
  </vehicle>
  <vehicle id="veh245" depart="380.0">
    <route edges="A1B1"/>
  </vehicle>
  <vehicle id="veh246" depart="385.0">
    <route edges="B1B0"/>
  </vehicle>
  <vehicle id="veh247" depart="385.0">
    <route edges="B1A1"/>
  </vehicle>
  <vehicle id="veh248" depart="385.0">
    <route edges="A1B1"/>
  </vehicle>
  <vehicle id="veh249" depart="395.0">
    <route edges="B1B0"/>
  </vehicle>
  <vehicle id="veh250" depart="400.0">
    <route edges="B0B1"/>
  </vehicle>
  <vehicle id="veh251" depart="400.0">
    <route edges="B0B1"/>
  </vehicle>
  <vehicle id="veh252" depart="400.0">
    <route edges="B1B0"/>
  </vehicle>
  <vehicle id="veh253" depart="400.0">
    <route edges="B0B1"/>
  </vehicle>
  <vehicle id="veh254" depart="410.0">
    <route edges="A1A0"/>
  </vehicle>
  <vehicle id="veh255" depart="410.0">
    <route edges="B0A0"/>
  </vehicle>
  <vehicle id="veh256" depart="410.0">
    <route edges="A1B1"/>
  </vehicle>
  <vehicle id="veh257" depart="410.0">
    <route edges="B1A1"/>
  </vehicle>
  <vehicle id="veh258" depart="415.0">
    <route edges="A0B0"/>
  </vehicle>
  <vehicle id="veh259" depart="415.0">
    <route edges="B0A0"/>
  </vehicle>
  <vehicle id="veh260" depart="415.0">
    <route edges="B0A0"/>
  </vehicle>
  <vehicle id="veh261" depart="415.0">
    <route edges="A1B1"/>
  </vehicle>
  <vehicle id="veh262" depart="415.0">
    <route edges="B1A1"/>
  </vehicle>
  <vehicle id="veh263" depart="420.0">
    <route edges="A0B0"/>
  </vehicle>
  <vehicle id="veh264" depart="420.0">
    <route edges="B1A1"/>
  </vehicle>
  <vehicle id="veh265" depart="420.0">
    <route edges="B0A0"/>
  </vehicle>
  <vehicle id="veh266" depart="420.0">
    <route edges="A1B1"/>
  </vehicle>
  <vehicle id="veh267" depart="435.0">
    <route edges="B0B1"/>
  </vehicle>
  <vehicle id="veh268" depart="435.0">
    <route edges="A0B0"/>
  </vehicle>
  <vehicle id="veh269" depart="435.0">
    <route edges="A0A1"/>
  </vehicle>
  <vehicle id="veh270" depart="435.0">
    <route edges="A1B1"/>
  </vehicle>
  <vehicle id="veh271" depart="435.0">
    <route edges="B0A0"/>
  </vehicle>
  <vehicle id="veh272" depart="445.0">
    <route edges="A1A0"/>
  </vehicle>
  <vehicle id="veh273" depart="445.0">
    <route edges="B0B1"/>
  </vehicle>
  <vehicle id="veh274" depart="445.0">
    <route edges="A0B0"/>
  </vehicle>
  <vehicle id="veh275" depart="445.0">
    <route edges="B0A0"/>
  </vehicle>
  <vehicle id="veh276" depart="455.0">
    <route edges="B0A0"/>
  </vehicle>
  <vehicle id="veh277" depart="455.0">
    <route edges="A0A1"/>
  </vehicle>
  <vehicle id="veh278" depart="455.0">
    <route edges="A1A0"/>
  </vehicle>
  <vehicle id="veh279" depart="455.0">
    <route edges="A1B1"/>
  </vehicle>
  <vehicle id="veh280" depart="460.0">
    <route edges="A1A0"/>
  </vehicle>
  <vehicle id="veh281" depart="460.0">
    <route edges="A1A0"/>
  </vehicle>
  <vehicle id="veh282" depart="460.0">
    <route edges="A0A1"/>
  </vehicle>
  <vehicle id="veh283" depart="460.0">
    <route edges="A1B1"/>
  </vehicle>
  <vehicle id="veh284" depart="460.0">
    <route edges="B0A0"/>
  </vehicle>
  <vehicle id="veh285" depart="465.0">
    <route edges="B0A0"/>
  </vehicle>
  <vehicle id="veh286" depart="465.0">
    <route edges="B1A1"/>
  </vehicle>
  <vehicle id="veh287" depart="465.0">
    <route edges="A1A0"/>
  </vehicle>
  <vehicle id="veh288" depart="465.0">
    <route edges="B0B1"/>
  </vehicle>
  <vehicle id="veh289" depart="465.0">
    <route edges="B0A0"/>
  </vehicle>
  <vehicle id="veh290" depart="470.0">
    <route edges="A1B1"/>
  </vehicle>
  <vehicle id="veh291" depart="470.0">
    <route edges="B1B0"/>
  </vehicle>
  <vehicle id="veh292" depart="470.0">
    <route edges="B1A1"/>
  </vehicle>
  <vehicle id="veh293" depart="470.0">
    <route edges="B0B1"/>
  </vehicle>
  <vehicle id="veh294" depart="470.0">
    <route edges="B1A1"/>
  </vehicle>
  <vehicle id="veh295" depart="470.0">
    <route edges="A0B0"/>
  </vehicle>
  <vehicle id="veh296" depart="475.0">
    <route edges="B1B0"/>
  </vehicle>
  <vehicle id="veh297" depart="475.0">
    <route edges="A0A1"/>
  </vehicle>
  <vehicle id="veh298" depart="475.0">
    <route edges="B1B0"/>
  </vehicle>
  <vehicle id="veh299" depart="475.0">
    <route edges="B0A0"/>
  </vehicle>
  <vehicle id="veh300" depart="475.0">
    <route edges="B1A1"/>
  </vehicle>
  <vehicle id="veh301" depart="475.0">
    <route edges="B0B1"/>
  </vehicle>
  <vehicle id="veh302" depart="485.0">
    <route edges="B1A1"/>
  </vehicle>
  <vehicle id="veh303" depart="490.0">
    <route edges="B0A0"/>
  </vehicle>
  <vehicle id="veh304" depart="490.0">
    <route edges="A1A0"/>
  </vehicle>
  <vehicle id="veh305" depart="490.0">
    <route edges="A1B1"/>
  </vehicle>
  <vehicle id="veh306" depart="490.0">
    <route edges="A0A1"/>
  </vehicle>
  <vehicle id="veh307" depart="490.0">
    <route edges="A0B0"/>
  </vehicle>
  <vehicle id="veh308" depart="490.0">
    <route edges="B1B0"/>
  </vehicle>
  <vehicle id="veh309" depart="500.0">
    <route edges="A0B0"/>
  </vehicle>
  <vehicle id="veh310" depart="500.0">
    <route edges="B0B1"/>
  </vehicle>
  <vehicle id="veh311" depart="500.0">
    <route edges="A1A0"/>
  </vehicle>
  <vehicle id="veh312" depart="500.0">
    <route edges="B0B1"/>
  </vehicle>
  <vehicle id="veh313" depart="500.0">
    <route edges="B1A1"/>
  </vehicle>
  <vehicle id="veh314" depart="510.0">
    <route edges="B0B1"/>
  </vehicle>
  <vehicle id="veh315" depart="510.0">
    <route edges="B0B1"/>
  </vehicle>
  <vehicle id="veh316" depart="510.0">
    <route edges="A1A0"/>
  </vehicle>
  <vehicle id="veh317" depart="510.0">
    <route edges="A0A1"/>
  </vehicle>
  <vehicle id="veh318" depart="510.0">
    <route edges="A1A0"/>
  </vehicle>
  <vehicle id="veh319" depart="510.0">
    <route edges="A0A1"/>
  </vehicle>
  <vehicle id="veh320" depart="510.0">
    <route edges="B0A0"/>
  </vehicle>
  <vehicle id="veh321" depart="515.0">
    <route edges="A0B0"/>
  </vehicle>
  <vehicle id="veh322" depart="515.0">
    <route edges="B0A0"/>
  </vehicle>
  <vehicle id="veh323" depart="515.0">
    <route edges="A1B1"/>
  </vehicle>
  <vehicle id="veh324" depart="515.0">
    <route edges="B0B1"/>
  </vehicle>
  <vehicle id="veh325" depart="515.0">
    <route edges="B0A0"/>
  </vehicle>
  <vehicle id="veh326" depart="520.0">
    <route edges="A1A0"/>
  </vehicle>
  <vehicle id="veh327" depart="525.0">
    <route edges="B1A1"/>
  </vehicle>
  <vehicle id="veh328" depart="525.0">
    <route edges="B1B0"/>
  </vehicle>
  <vehicle id="veh329" depart="525.0">
    <route edges="B1B0"/>
  </vehicle>
  <vehicle id="veh330" depart="525.0">
    <route edges="B1A1"/>
  </vehicle>
  <vehicle id="veh331" depart="525.0">
    <route edges="B0A0"/>
  </vehicle>
  <vehicle id="veh332" depart="525.0">
    <route edges="B0B1"/>
  </vehicle>
  <vehicle id="veh333" depart="530.0">
    <route edges="B0A0"/>
  </vehicle>
  <vehicle id="veh334" depart="530.0">
    <route edges="A1A0"/>
  </vehicle>
  <vehicle id="veh335" depart="530.0">
    <route edges="B1B0"/>
  </vehicle>
  <vehicle id="veh336" depart="530.0">
    <route edges="A0A1"/>
  </vehicle>
  <vehicle id="veh337" depart="530.0">
    <route edges="A0B0"/>
  </vehicle>
  <vehicle id="veh338" depart="535.0">
    <route edges="B1A1"/>
  </vehicle>
  <vehicle id="veh339" depart="535.0">
    <route edges="A1A0"/>
  </vehicle>
  <vehicle id="veh340" depart="535.0">
    <route edges="B1B0"/>
  </vehicle>
  <vehicle id="veh341" depart="535.0">
    <route edges="A1A0"/>
  </vehicle>
  <vehicle id="veh342" depart="535.0">
    <route edges="B1B0"/>
  </vehicle>
  <vehicle id="veh343" depart="540.0">
    <route edges="A0B0"/>
  </vehicle>
  <vehicle id="veh344" depart="540.0">
    <route edges="B0B1"/>
  </vehicle>
  <vehicle id="veh345" depart="540.0">
    <route edges="A1B1"/>
  </vehicle>
  <vehicle id="veh346" depart="540.0">
    <route edges="B1A1"/>
  </vehicle>
  <vehicle id="veh347" depart="540.0">
    <route edges="A1B1"/>
  </vehicle>
  <vehicle id="veh348" depart="550.0">
    <route edges="B0A0"/>
  </vehicle>
  <vehicle id="veh349" depart="550.0">
    <route edges="B0A0"/>
  </vehicle>
  <vehicle id="veh350" depart="550.0">
    <route edges="B1B0"/>
  </vehicle>
  <vehicle id="veh351" depart="550.0">
    <route edges="A0A1"/>
  </vehicle>
  <vehicle id="veh352" depart="560.0">
    <route edges="A0A1"/>
  </vehicle>
  <vehicle id="veh353" depart="560.0">
    <route edges="A1B1"/>
  </vehicle>
  <vehicle id="veh354" depart="560.0">
    <route edges="B1B0"/>
  </vehicle>
  <vehicle id="veh355" depart="560.0">
    <route edges="B1A1"/>
  </vehicle>
  <vehicle id="veh356" depart="560.0">
    <route edges="B1A1"/>
  </vehicle>
  <vehicle id="veh357" depart="560.0">
    <route edges="A0A1"/>
  </vehicle>
  <vehicle id="veh358" depart="570.0">
    <route edges="B1A1"/>
  </vehicle>
  <vehicle id="veh359" depart="570.0">
    <route edges="A0A1"/>
  </vehicle>
  <vehicle id="veh360" depart="570.0">
    <route edges="B1A1"/>
  </vehicle>
  <vehicle id="veh361" depart="570.0">
    <route edges="A0B0"/>
  </vehicle>
  <vehicle id="veh362" depart="570.0">
    <route edges="A1B1"/>
  </vehicle>
  <vehicle id="veh363" depart="570.0">
    <route edges="B0B1"/>
  </vehicle>
  <vehicle id="veh364" depart="575.0">
    <route edges="A0B0"/>
  </vehicle>
  <vehicle id="veh365" depart="575.0">
    <route edges="A1B1"/>
  </vehicle>
  <vehicle id="veh366" depart="575.0">
    <route edges="A1A0"/>
  </vehicle>
  <vehicle id="veh367" depart="575.0">
    <route edges="A0B0"/>
  </vehicle>
  <vehicle id="veh368" depart="575.0">
    <route edges="A0B0"/>
  </vehicle>
  <vehicle id="veh369" depart="580.0">
    <route edges="B1B0"/>
  </vehicle>
  <vehicle id="veh370" depart="580.0">
    <route edges="A0B0"/>
  </vehicle>
  <vehicle id="veh371" depart="580.0">
    <route edges="B0A0"/>
  </vehicle>
  <vehicle id="veh372" depart="580.0">
    <route edges="A1B1"/>
  </vehicle>
  <vehicle id="veh373" depart="580.0">
    <route edges="B0A0"/>
  </vehicle>
  <vehicle id="veh374" depart="590.0">
    <route edges="B0A0"/>
  </vehicle>
  <vehicle id="veh375" depart="590.0">
    <route edges="A1B1"/>
  </vehicle>
  <vehicle id="veh376" depart="590.0">
    <route edges="A0A1"/>
  </vehicle>
  <vehicle id="veh377" depart="590.0">
    <route edges="B1B0"/>
  </vehicle>
  <vehicle id="veh378" depart="590.0">
    <route edges="B0B1"/>
  </vehicle>
</routes>
