<routes>
  <vehicle id="veh0" depart="0.0">
    <route edges="A0A1"/>
  </vehicle>
  <vehicle id="veh1" depart="0.0">
    <route edges="B0A0"/>
  </vehicle>
  <vehicle id="veh2" depart="5.0">
    <route edges="A1B1"/>
  </vehicle>
  <vehicle id="veh3" depart="5.0">
    <route edges="A1B1"/>
  </vehicle>
  <vehicle id="veh4" depart="5.0">
    <route edges="A1A0"/>
  </vehicle>
  <vehicle id="veh5" depart="5.0">
    <route edges="A0B0"/>
  </vehicle>
  <vehicle id="veh6" depart="5.0">
    <route edges="A0B0"/>
  </vehicle>
  <vehicle id="veh7" depart="5.0">
    <route edges="B1A1"/>
  </vehicle>
  <vehicle id="veh8" depart="5.0">
    <route edges="A0A1"/>
  </vehicle>
  <vehicle id="veh9" depart="10.0">
    <route edges="A0A1"/>
  </vehicle>
  <vehicle id="veh10" depart="10.0">
    <route edges="A0B0"/>
  </vehicle>
  <vehicle id="veh11" depart="10.0">
    <route edges="A1B1"/>
  </vehicle>
  <vehicle id="veh12" depart="10.0">
    <route edges="A1B1"/>
  </vehicle>
  <vehicle id="veh13" depart="10.0">
    <route edges="A0A1"/>
  </vehicle>
  <vehicle id="veh14" depart="10.0">
    <route edges="A1B1"/>
  </vehicle>
  <vehicle id="veh15" depart="10.0">
    <route edges="B1A1"/>
  </vehicle>
  <vehicle id="veh16" depart="10.0">
    <route edges="A1B1"/>
  </vehicle>
  <vehicle id="veh17" depart="10.0">
    <route edges="B1B0"/>
  </vehicle>
  <vehicle id="veh18" depart="10.0">
    <route edges="B0A0"/>
  </vehicle>
  <vehicle id="veh19" depart="10.0">
    <route edges="A0A1"/>
  </vehicle>
  <vehicle id="veh20" depart="10.0">
    <route edges="A1A0"/>
  </vehicle>
  <vehicle id="veh21" depart="10.0">
    <route edges="B1A1"/>
  </vehicle>
  <vehicle id="veh22" depart="10.0">
    <route edges="B0B1"/>
  </vehicle>
  <vehicle id="veh23" depart="10.0">
    <route edges="B0A0"/>
  </vehicle>
  <vehicle id="veh24" depart="10.0">
    <route edges="A1A0"/>
  </vehicle>
  <vehicle id="veh25" depart="15.0">
    <route edges="A1B1"/>
  </vehicle>
  <vehicle id="veh26" depart="15.0">
    <route edges="B0B1"/>
  </vehicle>
  <vehicle id="veh27" depart="15.0">
    <route edges="A0B0"/>
  </vehicle>
  <vehicle id="veh28" depart="15.0">
    <route edges="A0B0"/>
  </vehicle>
  <vehicle id="veh29" depart="15.0">
    <route edges="B1A1"/>
  </vehicle>
  <vehicle id="veh30" depart="15.0">
    <route edges="A0B0"/>
  </vehicle>
  <vehicle id="veh31" depart="15.0">
    <route edges="B0B1"/>
  </vehicle>
  <vehicle id="veh32" depart="20.0">
    <route edges="B0B1"/>
  </vehicle>
  <vehicle id="veh33" depart="20.0">
    <route edges="B0A0"/>
  </vehicle>
  <vehicle id="veh34" depart="20.0">
    <route edges="A0A1"/>
  </vehicle>
  <vehicle id="veh35" depart="20.0">
    <route edges="B1B0"/>
  </vehicle>
  <vehicle id="veh36" depart="20.0">
    <route edges="A0B0"/>
  </vehicle>
  <vehicle id="veh37" depart="20.0">
    <route edges="B1A1"/>
  </vehicle>
  <vehicle id="veh38" depart="20.0">
    <route edges="A0B0"/>
  </vehicle>
  <vehicle id="veh39" depart="20.0">
    <route edges="B0A0"/>
  </vehicle>
  <vehicle id="veh40" depart="20.0">
    <route edges="B0B1"/>
  </vehicle>
  <vehicle id="veh41" depart="20.0">
    <route edges="A1B1"/>
  </vehicle>
  <vehicle id="veh42" depart="20.0">
    <route edges="A0B0"/>
  </vehicle>
  <vehicle id="veh43" depart="25.0">
    <route edges="A0A1"/>
  </vehicle>
  <vehicle id="veh44" depart="25.0">
    <route edges="A1B1"/>
  </vehicle>
  <vehicle id="veh45" depart="25.0">
    <route edges="B0A0"/>
  </vehicle>
  <vehicle id="veh46" depart="25.0">
    <route edges="A0B0"/>
  </vehicle>
  <vehicle id="veh47" depart="25.0">
    <route edges="A1B1"/>
  </vehicle>
  <vehicle id="veh48" depart="25.0">
    <route edges="A0B0"/>
  </vehicle>
  <vehicle id="veh49" depart="25.0">
    <route edges="B1A1"/>
  </vehicle>
  <vehicle id="veh50" depart="25.0">
    <route edges="B0A0"/>
  </vehicle>
  <vehicle id="veh51" depart="25.0">
    <route edges="B1B0"/>
  </vehicle>
  <vehicle id="veh52" depart="25.0">
    <route edges="B0B1"/>
  </vehicle>
  <vehicle id="veh53" depart="25.0">
    <route edges="A1A0"/>
  </vehicle>
  <vehicle id="veh54" depart="30.0">
    <route edges="B0B1"/>
  </vehicle>
  <vehicle id="veh55" depart="30.0">
    <route edges="B0B1"/>
  </vehicle>
  <vehicle id="veh56" depart="30.0">
    <route edges="A1B1"/>
  </vehicle>
  <vehicle id="veh57" depart="30.0">
    <route edges="B0A0"/>
  </vehicle>
  <vehicle id="veh58" depart="35.0">
    <route edges="A0B0"/>
  </vehicle>
  <vehicle id="veh59" depart="35.0">
    <route edges="A1A0"/>
  </vehicle>
  <vehicle id="veh60" depart="35.0">
    <route edges="A1B1"/>
  </vehicle>
  <vehicle id="veh61" depart="35.0">
    <route edges="A1A0"/>
  </vehicle>
  <vehicle id="veh62" depart="35.0">
    <route edges="B1B0"/>
  </vehicle>
  <vehicle id="veh63" depart="35.0">
    <route edges="B1A1"/>
  </vehicle>
  <vehicle id="veh64" depart="35.0">
    <route edges="B0A0"/>
  </vehicle>
  <vehicle id="veh65" depart="35.0">
    <route edges="A1B1"/>
  </vehicle>
  <vehicle id="veh66" depart="40.0">
    <route edges="B0B1"/>
  </vehicle>
  <vehicle id="veh67" depart="40.0">
    <route edges="A0A1"/>
  </vehicle>
  <vehicle id="veh68" depart="40.0">
    <route edges="A1B1"/>
  </vehicle>
  <vehicle id="veh69" depart="40.0">
    <route edges="A0A1"/>
  </vehicle>
  <vehicle id="veh70" depart="40.0">
    <route edges="B0B1"/>
  </vehicle>
  <vehicle id="veh71" depart="40.0">
    <route edges="B1A1"/>
  </vehicle>
  <vehicle id="veh72" depart="45.0">
    <route edges="B0A0"/>
  </vehicle>
  <vehicle id="veh73" depart="45.0">
    <route edges="A0B0"/>
  </vehicle>
  <vehicle id="veh74" depart="45.0">
    <route edges="A1B1"/>
  </vehicle>
  <vehicle id="veh75" depart="45.0">
    <route edges="B0B1"/>
  </vehicle>
  <vehicle id="veh76" depart="50.0">
    <route edges="A1B1"/>
  </vehicle>
  <vehicle id="veh77" depart="50.0">
    <route edges="B1B0"/>
  </vehicle>
  <vehicle id="veh78" depart="50.0">
    <route edges="B1A1"/>
  </vehicle>
  <vehicle id="veh79" depart="55.0">
    <route edges="B1B0"/>
  </vehicle>
  <vehicle id="veh80" depart="55.0">
    <route edges="A1A0"/>
  </vehicle>
  <vehicle id="veh81" depart="55.0">
    <route edges="B0A0"/>
  </vehicle>
  <vehicle id="veh82" depart="55.0">
    <route edges="A1A0"/>
  </vehicle>
  <vehicle id="veh83" depart="55.0">
    <route edges="A1B1"/>
  </vehicle>
  <vehicle id="veh84" depart="55.0">
    <route edges="B0A0"/>
  </vehicle>
  <vehicle id="veh85" depart="55.0">
    <route edges="B1A1"/>
  </vehicle>
  <vehicle id="veh86" depart="55.0">
    <route edges="B1A1"/>
  </vehicle>
  <vehicle id="veh87" depart="60.0">
    <route edges="B0B1"/>
  </vehicle>
  <vehicle id="veh88" depart="60.0">
    <route edges="A1B1"/>
  </vehicle>
  <vehicle id="veh89" depart="60.0">
    <route edges="A1A0"/>
  </vehicle>
  <vehicle id="veh90" depart="60.0">
    <route edges="B1B0"/>
  </vehicle>
  <vehicle id="veh91" depart="60.0">
    <route edges="A0B0"/>
  </vehicle>
  <vehicle id="veh92" depart="60.0">
    <route edges="A0A1"/>
  </vehicle>
  <vehicle id="veh93" depart="60.0">
    <route edges="A0B0"/>
  </vehicle>
  <vehicle id="veh94" depart="60.0">
    <route edges="A1A0"/>
  </vehicle>
  <vehicle id="veh95" depart="60.0">
    <route edges="A1A0"/>
  </vehicle>
  <vehicle id="veh96" depart="60.0">
    <route edges="B1A1"/>
  </vehicle>
  <vehicle id="veh97" depart="65.0">
    <route edges="A0B0"/>
  </vehicle>
  <vehicle id="veh98" depart="65.0">
    <route edges="B1A1"/>
  </vehicle>
  <vehicle id="veh99" depart="65.0">
    <route edges="B1A1"/>
  </vehicle>
  <vehicle id="veh100" depart="65.0">
    <route edges="B1B0"/>
  </vehicle>
  <vehicle id="veh101" depart="65.0">
    <route edges="B0A0"/>
  </vehicle>
  <vehicle id="veh102" depart="65.0">
    <route edges="A0A1"/>
  </vehicle>
  <vehicle id="veh103" depart="65.0">
    <route edges="A0B0"/>
  </vehicle>
  <vehicle id="veh104" depart="70.0">
    <route edges="B0A0"/>
  </vehicle>
  <vehicle id="veh105" depart="70.0">
    <route edges="B0B1"/>
  </vehicle>
  <vehicle id="veh106" depart="70.0">
    <route edges="A0B0"/>
  </vehicle>
  <vehicle id="veh107" depart="75.0">
    <route edges="B0A0"/>
  </vehicle>
  <vehicle id="veh108" depart="75.0">
    <route edges="B1A1"/>
  </vehicle>
  <vehicle id="veh109" depart="75.0">
    <route edges="A1A0"/>
  </vehicle>
  <vehicle id="veh110" depart="75.0">
    <route edges="B1B0"/>
  </vehicle>
  <vehicle id="veh111" depart="80.0">
    <route edges="A0A1"/>
  </vehicle>
  <vehicle id="veh112" depart="80.0">
    <route edges="B0A0"/>
  </vehicle>
  <vehicle id="veh113" depart="80.0">
    <route edges="A1A0"/>
  </vehicle>
  <vehicle id="veh114" depart="80.0">
    <route edges="A0B0"/>
  </vehicle>
  <vehicle id="veh115" depart="85.0">
    <route edges="B0A0"/>
  </vehicle>
  <vehicle id="veh116" depart="85.0">
    <route edges="A1B1"/>
  </vehicle>
  <vehicle id="veh117" depart="85.0">
    <route edges="A1A0"/>
  </vehicle>
  <vehicle id="veh118" depart="85.0">
    <route edges="B0B1"/>
  </vehicle>
  <vehicle id="veh119" depart="85.0">
    <route edges="A1A0"/>
  </vehicle>
  <vehicle id="veh120" depart="85.0">
    <route edges="A0A1"/>
  </vehicle>
  <vehicle id="veh121" depart="85.0">
    <route edges="B0B1"/>
  </vehicle>
  <vehicle id="veh122" depart="85.0">
    <route edges="B1B0"/>
  </vehicle>
  <vehicle id="veh123" depart="85.0">
    <route edges="A0A1"/>
  </vehicle>
  <vehicle id="veh124" depart="85.0">
    <route edges="A0B0"/>
  </vehicle>
  <vehicle id="veh125" depart="85.0">
    <route edges="B0B1"/>
  </vehicle>
  <vehicle id="veh126" depart="85.0">
    <route edges="B0A0"/>
  </vehicle>
  <vehicle id="veh127" depart="85.0">
    <route edges="A1B1"/>
  </vehicle>
  <vehicle id="veh128" depart="85.0">
    <route edges="A0A1"/>
  </vehicle>
  <vehicle id="veh129" depart="85.0">
    <route edges="A1B1"/>
  </vehicle>
  <vehicle id="veh130" depart="85.0">
    <route edges="A0B0"/>
  </vehicle>
  <vehicle id="veh131" depart="85.0">
    <route edges="A0B0"/>
  </vehicle>
  <vehicle id="veh132" depart="85.0">
    <route edges="B1B0"/>
  </vehicle>
  <vehicle id="veh133" depart="85.0">
    <route edges="A0B0"/>
  </vehicle>
  <vehicle id="veh134" depart="85.0">
    <route edges="A1A0"/>
  </vehicle>
  <vehicle id="veh135" depart="85.0">
    <route edges="A1A0"/>
  </vehicle>
  <vehicle id="veh136" depart="90.0">
    <route edges="B1B0"/>
  </vehicle>
  <vehicle id="veh137" depart="90.0">
    <route edges="A1A0"/>
  </vehicle>
  <vehicle id="veh138" depart="90.0">
    <route edges="B0A0"/>
  </vehicle>
  <vehicle id="veh139" depart="95.0">
    <route edges="B1A1"/>
  </vehicle>
  <vehicle id="veh140" depart="95.0">
    <route edges="A1B1"/>
  </vehicle>
  <vehicle id="veh141" depart="95.0">
    <route edges="A1B1"/>
  </vehicle>
  <vehicle id="veh142" depart="100.0">
    <route edges="B0A0"/>
  </vehicle>
  <vehicle id="veh143" depart="100.0">
    <route edges="B1A1"/>
  </vehicle>
  <vehicle id="veh144" depart="100.0">
    <route edges="B0B1"/>
  </vehicle>
  <vehicle id="veh145" depart="100.0">
    <route edges="B1B0"/>
  </vehicle>
  <vehicle id="veh146" depart="100.0">
    <route edges="B1B0"/>
  </vehicle>
  <vehicle id="veh147" depart="100.0">
    <route edges="A0B0"/>
  </vehicle>
  <vehicle id="veh148" depart="100.0">
    <route edges="A1B1"/>
  </vehicle>
  <vehicle id="veh149" depart="100.0">
    <route edges="A1B1"/>
  </vehicle>
  <vehicle id="veh150" depart="105.0">
    <route edges="A0B0"/>
  </vehicle>
  <vehicle id="veh151" depart="105.0">
    <route edges="B0B1"/>
  </vehicle>
  <vehicle id="veh152" depart="105.0">
    <route edges="A0A1"/>
  </vehicle>
  <vehicle id="veh153" depart="105.0">
    <route edges="A1B1"/>
  </vehicle>
  <vehicle id="veh154" depart="105.0">
    <route edges="A1B1"/>
  </vehicle>
  <vehicle id="veh155" depart="105.0">
    <route edges="A0A1"/>
  </vehicle>
  <vehicle id="veh156" depart="105.0">
    <route edges="A0B0"/>
  </vehicle>
  <vehicle id="veh157" depart="105.0">
    <route edges="A0A1"/>
  </vehicle>
  <vehicle id="veh158" depart="110.0">
    <route edges="A1B1"/>
  </vehicle>
  <vehicle id="veh159" depart="110.0">
    <route edges="A0B0"/>
  </vehicle>
  <vehicle id="veh160" depart="110.0">
    <route edges="A0A1"/>
  </vehicle>
  <vehicle id="veh161" depart="110.0">
    <route edges="B0B1"/>
  </vehicle>
  <vehicle id="veh162" depart="115.0">
    <route edges="A0B0"/>
  </vehicle>
  <vehicle id="veh163" depart="115.0">
    <route edges="A1B1"/>
  </vehicle>
  <vehicle id="veh164" depart="115.0">
    <route edges="B0A0"/>
  </vehicle>
  <vehicle id="veh165" depart="120.0">
    <route edges="B1B0"/>
  </vehicle>
  <vehicle id="veh166" depart="120.0">
    <route edges="A1B1"/>
  </vehicle>
  <vehicle id="veh167" depart="120.0">
    <route edges="A1A0"/>
  </vehicle>
  <vehicle id="veh168" depart="120.0">
    <route edges="B1B0"/>
  </vehicle>
  <vehicle id="veh169" depart="120.0">
    <route edges="A1B1"/>
  </vehicle>
  <vehicle id="veh170" depart="120.0">
    <route edges="B1B0"/>
  </vehicle>
  <vehicle id="veh171" depart="120.0">
    <route edges="B1A1"/>
  </vehicle>
  <vehicle id="veh172" depart="120.0">
    <route edges="A1B1"/>
  </vehicle>
  <vehicle id="veh173" depart="125.0">
    <route edges="A0B0"/>
  </vehicle>
  <vehicle id="veh174" depart="125.0">
    <route edges="A0B0"/>
  </vehicle>
  <vehicle id="veh175" depart="125.0">
    <route edges="B1A1"/>
  </vehicle>
  <vehicle id="veh176" depart="125.0">
    <route edges="B0B1"/>
  </vehicle>
  <vehicle id="veh177" depart="125.0">
    <route edges="B1A1"/>
  </vehicle>
  <vehicle id="veh178" depart="125.0">
    <route edges="B1A1"/>
  </vehicle>
  <vehicle id="veh179" depart="125.0">
    <route edges="B1B0"/>
  </vehicle>
  <vehicle id="veh180" depart="125.0">
    <route edges="A0A1"/>
  </vehicle>
  <vehicle id="veh181" depart="125.0">
    <route edges="A0B0"/>
  </vehicle>
  <vehicle id="veh182" depart="130.0">
    <route edges="A0A1"/>
  </vehicle>
  <vehicle id="veh183" depart="130.0">
    <route edges="B1A1"/>
  </vehicle>
  <vehicle id="veh184" depart="130.0">
    <route edges="B0B1"/>
  </vehicle>
  <vehicle id="veh185" depart="130.0">
    <route edges="A0B0"/>
  </vehicle>
  <vehicle id="veh186" depart="130.0">
    <route edges="A1B1"/>
  </vehicle>
  <vehicle id="veh187" depart="130.0">
    <route edges="A1B1"/>
  </vehicle>
  <vehicle id="veh188" depart="135.0">
    <route edges="A1B1"/>
  </vehicle>
  <vehicle id="veh189" depart="135.0">
    <route edges="B1B0"/>
  </vehicle>
  <vehicle id="veh190" depart="140.0">
    <route edges="A1A0"/>
  </vehicle>
  <vehicle id="veh191" depart="140.0">
    <route edges="B1A1"/>
  </vehicle>
  <vehicle id="veh192" depart="140.0">
    <route edges="A1A0"/>
  </vehicle>
  <vehicle id="veh193" depart="140.0">
    <route edges="B0A0"/>
  </vehicle>
  <vehicle id="veh194" depart="140.0">
    <route edges="B1B0"/>
  </vehicle>
  <vehicle id="veh195" depart="140.0">
    <route edges="A1B1"/>
  </vehicle>
  <vehicle id="veh196" depart="140.0">
    <route edges="A0B0"/>
  </vehicle>
  <vehicle id="veh197" depart="140.0">
    <route edges="B1B0"/>
  </vehicle>
  <vehicle id="veh198" depart="140.0">
    <route edges="A0B0"/>
  </vehicle>
  <vehicle id="veh199" depart="140.0">
    <route edges="A0A1"/>
  </vehicle>
  <vehicle id="veh200" depart="145.0">
    <route edges="A0A1"/>
  </vehicle>
  <vehicle id="veh201" depart="145.0">
    <route edges="A0B0"/>
  </vehicle>
  <vehicle id="veh202" depart="145.0">
    <route edges="A1B1"/>
  </vehicle>
  <vehicle id="veh203" depart="150.0">
    <route edges="A1A0"/>
  </vehicle>
  <vehicle id="veh204" depart="155.0">
    <route edges="B1A1"/>
  </vehicle>
  <vehicle id="veh205" depart="155.0">
    <route edges="B1B0"/>
  </vehicle>
  <vehicle id="veh206" depart="155.0">
    <route edges="B1B0"/>
  </vehicle>
  <vehicle id="veh207" depart="155.0">
    <route edges="A1B1"/>
  </vehicle>
  <vehicle id="veh208" depart="155.0">
    <route edges="B1A1"/>
  </vehicle>
  <vehicle id="veh209" depart="155.0">
    <route edges="A0A1"/>
  </vehicle>
  <vehicle id="veh210" depart="155.0">
    <route edges="A1A0"/>
  </vehicle>
  <vehicle id="veh211" depart="155.0">
    <route edges="B1A1"/>
  </vehicle>
  <vehicle id="veh212" depart="155.0">
    <route edges="A0A1"/>
  </vehicle>
  <vehicle id="veh213" depart="155.0">
    <route edges="B1A1"/>
  </vehicle>
  <vehicle id="veh214" depart="155.0">
    <route edges="B0A0"/>
  </vehicle>
  <vehicle id="veh215" depart="155.0">
    <route edges="B1B0"/>
  </vehicle>
  <vehicle id="veh216" depart="160.0">
    <route edges="B0A0"/>
  </vehicle>
  <vehicle id="veh217" depart="160.0">
    <route edges="B1A1"/>
  </vehicle>
  <vehicle id="veh218" depart="160.0">
    <route edges="B1B0"/>
  </vehicle>
  <vehicle id="veh219" depart="165.0">
    <route edges="A1A0"/>
  </vehicle>
  <vehicle id="veh220" depart="165.0">
    <route edges="A1B1"/>
  </vehicle>
  <vehicle id="veh221" depart="165.0">
    <route edges="B0A0"/>
  </vehicle>
  <vehicle id="veh222" depart="165.0">
    <route edges="A1B1"/>
  </vehicle>
  <vehicle id="veh223" depart="165.0">
    <route edges="A0A1"/>
  </vehicle>
  <vehicle id="veh224" depart="165.0">
    <route edges="A0A1"/>
  </vehicle>
  <vehicle id="veh225" depart="165.0">
    <route edges="B0B1"/>
  </vehicle>
  <vehicle id="veh226" depart="165.0">
    <route edges="A0A1"/>
  </vehicle>
  <vehicle id="veh227" depart="170.0">
    <route edges="A0A1"/>
  </vehicle>
  <vehicle id="veh228" depart="170.0">
    <route edges="B1B0"/>
  </vehicle>
  <vehicle id="veh229" depart="170.0">
    <route edges="A1A0"/>
  </vehicle>
  <vehicle id="veh230" depart="170.0">
    <route edges="A0A1"/>
  </vehicle>
  <vehicle id="veh231" depart="170.0">
    <route edges="A0B0"/>
  </vehicle>
  <vehicle id="veh232" depart="170.0">
    <route edges="A1A0"/>
  </vehicle>
  <vehicle id="veh233" depart="170.0">
    <route edges="A0B0"/>
  </vehicle>
  <vehicle id="veh234" depart="170.0">
    <route edges="A0B0"/>
  </vehicle>
  <vehicle id="veh235" depart="170.0">
    <route edges="A1B1"/>
  </vehicle>
  <vehicle id="veh236" depart="175.0">
    <route edges="B1A1"/>
  </vehicle>
  <vehicle id="veh237" depart="175.0">
    <route edges="A0B0"/>
  </vehicle>
  <vehicle id="veh238" depart="175.0">
    <route edges="A1B1"/>
  </vehicle>
  <vehicle id="veh239" depart="175.0">
    <route edges="A0A1"/>
  </vehicle>
  <vehicle id="veh240" depart="175.0">
    <route edges="A0B0"/>
  </vehicle>
  <vehicle id="veh241" depart="180.0">
    <route edges="B1A1"/>
  </vehicle>
  <vehicle id="veh242" depart="180.0">
    <route edges="B0B1"/>
  </vehicle>
  <vehicle id="veh243" depart="180.0">
    <route edges="B0A0"/>
  </vehicle>
  <vehicle id="veh244" depart="185.0">
    <route edges="A1B1"/>
  </vehicle>
  <vehicle id="veh245" depart="185.0">
    <route edges="B0B1"/>
  </vehicle>
  <vehicle id="veh246" depart="185.0">
    <route edges="A1B1"/>
  </vehicle>
  <vehicle id="veh247" depart="185.0">
    <route edges="B0A0"/>
  </vehicle>
  <vehicle id="veh248" depart="185.0">
    <route edges="B1A1"/>
  </vehicle>
  <vehicle id="veh249" depart="185.0">
    <route edges="A1A0"/>
  </vehicle>
  <vehicle id="veh250" depart="190.0">
    <route edges="B0A0"/>
  </vehicle>
  <vehicle id="veh251" depart="190.0">
    <route edges="B1B0"/>
  </vehicle>
  <vehicle id="veh252" depart="190.0">
    <route edges="B0B1"/>
  </vehicle>
  <vehicle id="veh253" depart="190.0">
    <route edges="A0B0"/>
  </vehicle>
  <vehicle id="veh254" depart="190.0">
    <route edges="A0A1"/>
  </vehicle>
  <vehicle id="veh255" depart="190.0">
    <route edges="B1B0"/>
  </vehicle>
  <vehicle id="veh256" depart="190.0">
    <route edges="A0B0"/>
  </vehicle>
  <vehicle id="veh257" depart="190.0">
    <route edges="A0B0"/>
  </vehicle>
  <vehicle id="veh258" depart="190.0">
    <route edges="A1B1"/>
  </vehicle>
  <vehicle id="veh259" depart="190.0">
    <route edges="B0A0"/>
  </vehicle>
  <vehicle id="veh260" depart="195.0">
    <route edges="A1A0"/>
  </vehicle>
  <vehicle id="veh261" depart="195.0">
    <route edges="B0B1"/>
  </vehicle>
  <vehicle id="veh262" depart="195.0">
    <route edges="A0B0"/>
  </vehicle>
  <vehicle id="veh263" depart="195.0">
    <route edges="A1B1"/>
  </vehicle>
  <vehicle id="veh264" depart="195.0">
    <route edges="B0B1"/>
  </vehicle>
  <vehicle id="veh265" depart="195.0">
    <route edges="B0A0"/>
  </vehicle>
  <vehicle id="veh266" depart="195.0">
    <route edges="A1A0"/>
  </vehicle>
  <vehicle id="veh267" depart="195.0">
    <route edges="B1B0"/>
  </vehicle>
  <vehicle id="veh268" depart="195.0">
    <route edges="B0A0"/>
  </vehicle>
  <vehicle id="veh269" depart="195.0">
    <route edges="A0A1"/>
  </vehicle>
  <vehicle id="veh270" depart="200.0">
    <route edges="B0A0"/>
  </vehicle>
  <vehicle id="veh271" depart="200.0">
    <route edges="A0B0"/>
  </vehicle>
  <vehicle id="veh272" depart="200.0">
    <route edges="A1A0"/>
  </vehicle>
  <vehicle id="veh273" depart="200.0">
    <route edges="B0A0"/>
  </vehicle>
  <vehicle id="veh274" depart="200.0">
    <route edges="A0B0"/>
  </vehicle>
  <vehicle id="veh275" depart="200.0">
    <route edges="A0B0"/>
  </vehicle>
  <vehicle id="veh276" depart="200.0">
    <route edges="A1A0"/>
  </vehicle>
  <vehicle id="veh277" depart="200.0">
    <route edges="B0A0"/>
  </vehicle>
  <vehicle id="veh278" depart="200.0">
    <route edges="B0A0"/>
  </vehicle>
  <vehicle id="veh279" depart="200.0">
    <route edges="A1B1"/>
  </vehicle>
  <vehicle id="veh280" depart="200.0">
    <route edges="B0B1"/>
  </vehicle>
  <vehicle id="veh281" depart="200.0">
    <route edges="A1B1"/>
  </vehicle>
  <vehicle id="veh282" depart="205.0">
    <route edges="B0A0"/>
  </vehicle>
  <vehicle id="veh283" depart="205.0">
    <route edges="B1B0"/>
  </vehicle>
  <vehicle id="veh284" depart="205.0">
    <route edges="B0A0"/>
  </vehicle>
  <vehicle id="veh285" depart="205.0">
    <route edges="A0A1"/>
  </vehicle>
  <vehicle id="veh286" depart="205.0">
    <route edges="A0B0"/>
  </vehicle>
  <vehicle id="veh287" depart="205.0">
    <route edges="B1A1"/>
  </vehicle>
  <vehicle id="veh288" depart="205.0">
    <route edges="B0A0"/>
  </vehicle>
  <vehicle id="veh289" depart="205.0">
    <route edges="A0A1"/>
  </vehicle>
  <vehicle id="veh290" depart="205.0">
    <route edges="A0A1"/>
  </vehicle>
  <vehicle id="veh291" depart="205.0">
    <route edges="B0B1"/>
  </vehicle>
  <vehicle id="veh292" depart="205.0">
    <route edges="A1A0"/>
  </vehicle>
  <vehicle id="veh293" depart="205.0">
    <route edges="B0A0"/>
  </vehicle>
  <vehicle id="veh294" depart="205.0">
    <route edges="A1A0"/>
  </vehicle>
  <vehicle id="veh295" depart="205.0">
    <route edges="B1B0"/>
  </vehicle>
  <vehicle id="veh296" depart="210.0">
    <route edges="B1A1"/>
  </vehicle>
  <vehicle id="veh297" depart="210.0">
    <route edges="A0A1"/>
  </vehicle>
  <vehicle id="veh298" depart="210.0">
    <route edges="A0B0"/>
  </vehicle>
  <vehicle id="veh299" depart="210.0">
    <route edges="A0B0"/>
  </vehicle>
  <vehicle id="veh300" depart="210.0">
    <route edges="A1A0"/>
  </vehicle>
  <vehicle id="veh301" depart="210.0">
    <route edges="A0A1"/>
  </vehicle>
  <vehicle id="veh302" depart="210.0">
    <route edges="B0B1"/>
  </vehicle>
  <vehicle id="veh303" depart="215.0">
    <route edges="A1A0"/>
  </vehicle>
  <vehicle id="veh304" depart="215.0">
    <route edges="B1A1"/>
  </vehicle>
  <vehicle id="veh305" depart="215.0">
    <route edges="A1A0"/>
  </vehicle>
  <vehicle id="veh306" depart="220.0">
    <route edges="A0A1"/>
  </vehicle>
  <vehicle id="veh307" depart="225.0">
    <route edges="B0A0"/>
  </vehicle>
  <vehicle id="veh308" depart="225.0">
    <route edges="B0B1"/>
  </vehicle>
  <vehicle id="veh309" depart="225.0">
    <route edges="A0A1"/>
  </vehicle>
  <vehicle id="veh310" depart="225.0">
    <route edges="B0B1"/>
  </vehicle>
  <vehicle id="veh311" depart="225.0">
    <route edges="A1B1"/>
  </vehicle>
  <vehicle id="veh312" depart="225.0">
    <route edges="A1B1"/>
  </vehicle>
  <vehicle id="veh313" depart="225.0">
    <route edges="A0B0"/>
  </vehicle>
  <vehicle id="veh314" depart="230.0">
    <route edges="B0B1"/>
  </vehicle>
  <vehicle id="veh315" depart="230.0">
    <route edges="B1A1"/>
  </vehicle>
  <vehicle id="veh316" depart="230.0">
    <route edges="A1A0"/>
  </vehicle>
  <vehicle id="veh317" depart="235.0">
    <route edges="A1B1"/>
  </vehicle>
  <vehicle id="veh318" depart="235.0">
    <route edges="A1A0"/>
  </vehicle>
  <vehicle id="veh319" depart="235.0">
    <route edges="A1A0"/>
  </vehicle>
  <vehicle id="veh320" depart="235.0">
    <route edges="B1A1"/>
  </vehicle>
  <vehicle id="veh321" depart="235.0">
    <route edges="A0A1"/>
  </vehicle>
  <vehicle id="veh322" depart="235.0">
    <route edges="A1A0"/>
  </vehicle>
  <vehicle id="veh323" depart="235.0">
    <route edges="B0B1"/>
  </vehicle>
  <vehicle id="veh324" depart="235.0">
    <route edges="B1A1"/>
  </vehicle>
  <vehicle id="veh325" depart="235.0">
    <route edges="A1B1"/>
  </vehicle>
  <vehicle id="veh326" depart="240.0">
    <route edges="B0A0"/>
  </vehicle>
  <vehicle id="veh327" depart="240.0">
    <route edges="A1A0"/>
  </vehicle>
  <vehicle id="veh328" depart="240.0">
    <route edges="A0B0"/>
  </vehicle>
  <vehicle id="veh329" depart="240.0">
    <route edges="B1A1"/>
  </vehicle>
  <vehicle id="veh330" depart="240.0">
    <route edges="A0A1"/>
  </vehicle>
  <vehicle id="veh331" depart="240.0">
    <route edges="B1B0"/>
  </vehicle>
  <vehicle id="veh332" depart="240.0">
    <route edges="A1B1"/>
  </vehicle>
  <vehicle id="veh333" depart="240.0">
    <route edges="A1B1"/>
  </vehicle>
  <vehicle id="veh334" depart="245.0">
    <route edges="B1B0"/>
  </vehicle>
  <vehicle id="veh335" depart="245.0">
    <route edges="B0B1"/>
  </vehicle>
  <vehicle id="veh336" depart="245.0">
    <route edges="B0A0"/>
  </vehicle>
  <vehicle id="veh337" depart="245.0">
    <route edges="A1B1"/>
  </vehicle>
  <vehicle id="veh338" depart="245.0">
    <route edges="A1B1"/>
  </vehicle>
  <vehicle id="veh339" depart="245.0">
    <route edges="A0A1"/>
  </vehicle>
  <vehicle id="veh340" depart="245.0">
    <route edges="A1B1"/>
  </vehicle>
  <vehicle id="veh341" depart="245.0">
    <route edges="B1A1"/>
  </vehicle>
  <vehicle id="veh342" depart="250.0">
    <route edges="B0B1"/>
  </vehicle>
  <vehicle id="veh343" depart="250.0">
    <route edges="B0A0"/>
  </vehicle>
  <vehicle id="veh344" depart="250.0">
    <route edges="A0B0"/>
  </vehicle>
  <vehicle id="veh345" depart="250.0">
    <route edges="B0A0"/>
  </vehicle>
  <vehicle id="veh346" depart="250.0">
    <route edges="B0B1"/>
  </vehicle>
  <vehicle id="veh347" depart="250.0">
    <route edges="B1A1"/>
  </vehicle>
  <vehicle id="veh348" depart="250.0">
    <route edges="B0B1"/>
  </vehicle>
  <vehicle id="veh349" depart="255.0">
    <route edges="A0A1"/>
  </vehicle>
  <vehicle id="veh350" depart="255.0">
    <route edges="A0B0"/>
  </vehicle>
  <vehicle id="veh351" depart="260.0">
    <route edges="B0A0"/>
  </vehicle>
  <vehicle id="veh352" depart="260.0">
    <route edges="A1A0"/>
  </vehicle>
  <vehicle id="veh353" depart="260.0">
    <route edges="B0A0"/>
  </vehicle>
  <vehicle id="veh354" depart="260.0">
    <route edges="A0A1"/>
  </vehicle>
  <vehicle id="veh355" depart="260.0">
    <route edges="A0B0"/>
  </vehicle>
  <vehicle id="veh356" depart="260.0">
    <route edges="B1A1"/>
  </vehicle>
  <vehicle id="veh357" depart="260.0">
    <route edges="B0B1"/>
  </vehicle>
  <vehicle id="veh358" depart="260.0">
    <route edges="B0B1"/>
  </vehicle>
  <vehicle id="veh359" depart="260.0">
    <route edges="B1A1"/>
  </vehicle>
  <vehicle id="veh360" depart="260.0">
    <route edges="A0B0"/>
  </vehicle>
  <vehicle id="veh361" depart="265.0">
    <route edges="B1A1"/>
  </vehicle>
  <vehicle id="veh362" depart="265.0">
    <route edges="A1B1"/>
  </vehicle>
  <vehicle id="veh363" depart="265.0">
    <route edges="B0A0"/>
  </vehicle>
  <vehicle id="veh364" depart="270.0">
    <route edges="A0A1"/>
  </vehicle>
  <vehicle id="veh365" depart="270.0">
    <route edges="B1A1"/>
  </vehicle>
  <vehicle id="veh366" depart="270.0">
    <route edges="A0A1"/>
  </vehicle>
  <vehicle id="veh367" depart="270.0">
    <route edges="A1B1"/>
  </vehicle>
  <vehicle id="veh368" depart="270.0">
    <route edges="B0B1"/>
  </vehicle>
  <vehicle id="veh369" depart="270.0">
    <route edges="B1A1"/>
  </vehicle>
  <vehicle id="veh370" depart="270.0">
    <route edges="A0B0"/>
  </vehicle>
  <vehicle id="veh371" depart="275.0">
    <route edges="B0B1"/>
  </vehicle>
  <vehicle id="veh372" depart="275.0">
    <route edges="B0B1"/>
  </vehicle>
  <vehicle id="veh373" depart="275.0">
    <route edges="A0B0"/>
  </vehicle>
  <vehicle id="veh374" depart="275.0">
    <route edges="B0A0"/>
  </vehicle>
  <vehicle id="veh375" depart="275.0">
    <route edges="B0A0"/>
  </vehicle>
  <vehicle id="veh376" depart="275.0">
    <route edges="B1A1"/>
  </vehicle>
  <vehicle id="veh377" depart="275.0">
    <route edges="B0B1"/>
  </vehicle>
  <vehicle id="veh378" depart="275.0">
    <route edges="B1A1"/>
  </vehicle>
  <vehicle id="veh379" depart="275.0">
    <route edges="B0A0"/>
  </vehicle>
  <vehicle id="veh380" depart="280.0">
    <route edges="A1A0"/>
  </vehicle>
  <vehicle id="veh381" depart="280.0">
    <route edges="A1B1"/>
  </vehicle>
  <vehicle id="veh382" depart="280.0">
    <route edges="B1A1"/>
  </vehicle>
  <vehicle id="veh383" depart="280.0">
    <route edges="B1A1"/>
  </vehicle>
  <vehicle id="veh384" depart="280.0">
    <route edges="A1A0"/>
  </vehicle>
  <vehicle id="veh385" depart="280.0">
    <route edges="B0A0"/>
  </vehicle>
  <vehicle id="veh386" depart="285.0">
    <route edges="B1A1"/>
  </vehicle>
  <vehicle id="veh387" depart="285.0">
    <route edges="A0A1"/>